LAMMPS (7 Aug 2019)
# Type: 3-d LJ polymer simulation
# Description: A computational study of the compaction of a linear polymeric chain by spherical crowders in a cylindrical confinement.

#------------------------------------------
#--------------------- (1) Variables defined by command-line tools ---------------------
#------------------------------------------

#List of variables and their names defined by command line method. Their description and the step they will be used in are described in next sections:

#------------------------------------------
#--------------------- (2) Initialization ---------------------
#------------------------------------------
units   lj # Lennard-Jones units.
dimension   3 # 3 dimensional simulation.
boundary    f f p # Periodic (p) in z direction but non-periodic and fixed (f) in x and y directions.
atom_style  bond

#------------------------------------------
#--------------------- (3) Neighbor Lists ---------------------
#------------------------------------------

neighbor        0.2 bin
neigh_modify    delay 0 every 1 check yes one 300 page 3000

#------------------------------------------
#--------------------- (4) Processors Communications ---------------------
#------------------------------------------

#------------------------------------------
#--------------------- (5) Atom Definition ---------------------
#------------------------------------------

#---------- Read input file ----------
read_data   data.chain.80
  orthogonal box = (-4.1 -4.1 -5.03) to (4.1 4.1 5.88713)
  reading atoms ...
  80 atoms
  reading velocities ...
  80 velocities
  scanning bonds ...
  reading bonds ...
  79 bonds

#---------- Reshape simulation box/Define simulation box   ----------
change_box  all x final -3 3 y final -3 3 z final -52 52 boundary f f p units box
  orthogonal box = (-3 -4.1 -5.03) to (3 4.1 5.88713)
  orthogonal box = (-3 -3 -5.03) to (3 3 5.88713)
  orthogonal box = (-3 -3 -52) to (3 3 52)
region  cylshell cylinder z 0.0 0.0 3 INF INF units box

#---------- Create atoms ----------
variable    randseed equal 1+1000
create_atoms	2 random 1000 1001 cylshell units box
Created 1000 atoms

#---------- Group atoms ----------
group   bug type 1
80 atoms in group bug
group   crowd type 2
1000 atoms in group crowd

#---------- Define atoms masses ----------
mass 1 1.0
mass 2 1.0

#---------- Set velocity of the chain ----------
#----- Define a temperature compute for the chain and use to set velocity for the chain -----
compute mobile bug temp
velocity   bug create 1.0 1001 temp mobile

#------------------------------------------
#--------------------- (6) Interatomic/molecular Potential ---------------------
#------------------------------------------

#---------- Lennard-Jones potential among all particles ----------
#---------- (6-a) Variables ----------
variable sig1 equal 1.0
variable sig12 equal (1+0.3)/2
variable cutoff11 equal 1*1.12246
variable cutoff12 equal ((1+0.3)/2.0)*1.12246
variable cutoff22 equal 0.3*1.12246

pair_style      lj/cut 1.12246 # Cutoff distance = 2^(1/6) = 1.12246. For each pair, this cutoff is multiplied by sig_{ij} to give the real cutoff for each pair.

#Pair coefficient:   type-i  type-j (i should always be smaller than j) epsilon=1 sigma=(a_i+a_j)/2   cutoff=((sig_i+sig_j)/2)*2^(1/6)
pair_coeff      1 1 1.0 1  1.12246
pair_coeff      1 2 1.0 0.65 0.729599
pair_coeff      2 2 1.0 0.3  0.336738

#---------- FENE potential among the chain's monomers ----------
#---------- (6-b) Variables ----------
variable    sig1_fene equal 1.5*1
variable    k1_fene equal  30/(1*1)

bond_style  fene

#Bond coefficient:  type-i  K=(30*epsilon)/((a_i+a_j_^2)   R_0=1.5*((a_i+a_j)/2 )   epsilon=1    sigma=(a_i+a_j)/2
bond_coeff  1 30  1.5    1.0 1

#---------- Weighting coefficient for bonded atoms with pairwise interactions (Example,LJ interaction of two monomers in a chain) ----------
special_bonds   fene

#------------------------------------------
#--------------------- (7) Settings ---------------------
#------------------------------------------

#---------- Equilibration/Method of integration of equation of motion ----------
# Microcanonical ensamble:
fix     F_nve all nve/limit 0.01

#---------- Brownian dynamics for all particles ----------
fix     F_langevin all langevin 1.0 1.0 10.0 1001

#---------- Lennard-Jones potential between the lateral wall and each type of particles ----------
fix     F_wall1 bug wall/region cylshell lj126 5.0 1 1.12246
fix     F_wall2 crowd wall/region cylshell lj126 1.0 0.65  0.729599

fix     F_recenter bug recenter NULL NULL 0.0 shift all units box

#------------------------------------------
#--------------------- (8) Run a simulation ---------------------
#------------------------------------------

#---------- Equilibration run (Dynamic phase)
timestep 0.01

thermo 10000
#dump D_bug_image bug image 5000 ./images/img_*_bug.jpg type type axes yes 0.3 0.05
#dump D_all_image all image 5000 ./images/img_*_all.jpg type type axes yes 0.3 0.05
#dump_modify D_bug_image first yes pad 8
#dump_modify D_all_image first yes pad 8
run 10000
  update every 1 steps, delay 0 steps, check yes
Step Temp E_pair E_mol TotEng Press
0  0.073215941    10199.665    1969.4123    12169.187    14062.029
Loop time of 2.27052 on 1 procs for 10000 steps with 1080 atoms

write_restart    ./restart_before.1

# Wiping out commands
#undump D_all_dynamic
unfix F_nve
unfix F_recenter

#---------- After equilibration (Data gathering run)
#Reset some settings
fix        F_nve all nve
fix        F_recenter bug recenter NULL NULL 0.0 shift all units box

timestep    0.002

variable j loop 10 #Having 10 roughly 7GB-size dump files
	label dump_loop
	dump	 D_bug bug atom  1000 bug.i1.j1.lmptrj
	dump_modify D_bug scale no pbc yes
	dump	 D_crowd crowd atom 1000 crowd.i1.j1.lmptrj
	dump_modify D_crowd scale no pbc yes
	restart 10000  ./restarts/restart_during.1
	run	50000
Step Temp E_pair E_mol TotEng Press
10000   0.19013077  -0.01932436    1.4824317    1.7480394  0.042213607
Loop time of 8.81213 on 1 procs for 50000 steps with 1080 atoms

	undump D_bug
	undump D_crowd
	next j
	jump input_loop.lmp dump_loop # input.lmp is the input script itself to prevent any issues related to stdin and SELF.
	dump	 D_bug bug atom  1000 bug.i1.j2.lmptrj
	dump_modify D_bug scale no pbc yes
	dump	 D_crowd crowd atom 1000 crowd.i1.j2.lmptrj
	dump_modify D_crowd scale no pbc yes
	restart 10000  ./restarts/restart_during.1
	run	50000
Step Temp E_pair E_mol TotEng Press
60000   0.97481426 -0.018477904    1.5159886    2.9583782    0.2895003
Loop time of 8.80953 on 1 procs for 50000 steps with 1080 atoms

	undump D_bug
	undump D_crowd
	next j
	jump input_loop.lmp dump_loop # input.lmp is the input script itself to prevent any issues related to stdin and SELF.
	dump	 D_bug bug atom  1000 bug.i1.j3.lmptrj
	dump_modify D_bug scale no pbc yes
	dump	 D_crowd crowd atom 1000 crowd.i1.j3.lmptrj
	dump_modify D_crowd scale no pbc yes
	restart 10000  ./restarts/restart_during.1
	run	50000
Step Temp E_pair E_mol TotEng Press
110000    1.0484752 -0.024656982    1.5088966    3.0554962   0.30622897
Loop time of 7.90224 on 1 procs for 50000 steps with 1080 atoms

	undump D_bug
	undump D_crowd
	next j
	jump input_loop.lmp dump_loop # input.lmp is the input script itself to prevent any issues related to stdin and SELF.
	dump	 D_bug bug atom  1000 bug.i1.j4.lmptrj
	dump_modify D_bug scale no pbc yes
	dump	 D_crowd crowd atom 1000 crowd.i1.j4.lmptrj
	dump_modify D_crowd scale no pbc yes
	restart 10000  ./restarts/restart_during.1
	run	50000
Step Temp E_pair E_mol TotEng Press
160000     1.010091 -0.015674538    1.5124536    3.0105126   0.25772937
Loop time of 6.92581 on 1 procs for 50000 steps with 1080 atoms

	undump D_bug
	undump D_crowd
	next j
	jump input_loop.lmp dump_loop # input.lmp is the input script itself to prevent any issues related to stdin and SELF.
	dump	 D_bug bug atom  1000 bug.i1.j5.lmptrj
	dump_modify D_bug scale no pbc yes
	dump	 D_crowd crowd atom 1000 crowd.i1.j5.lmptrj
	dump_modify D_crowd scale no pbc yes
	restart 10000  ./restarts/restart_during.1
	run	50000
Step Temp E_pair E_mol TotEng Press
210000     1.023907 -0.023457843    1.5148477    3.0258283   0.26545398
Loop time of 6.8746 on 1 procs for 50000 steps with 1080 atoms

	undump D_bug
	undump D_crowd
	next j
	jump input_loop.lmp dump_loop # input.lmp is the input script itself to prevent any issues related to stdin and SELF.
	dump	 D_bug bug atom  1000 bug.i1.j6.lmptrj
	dump_modify D_bug scale no pbc yes
	dump	 D_crowd crowd atom 1000 crowd.i1.j6.lmptrj
	dump_modify D_crowd scale no pbc yes
	restart 10000  ./restarts/restart_during.1
	run	50000
Step Temp E_pair E_mol TotEng Press
260000   0.99084677 -0.0079186487     1.517301    2.9942764   0.30026771
Loop time of 6.91069 on 1 procs for 50000 steps with 1080 atoms

	undump D_bug
	undump D_crowd
	next j
	jump input_loop.lmp dump_loop # input.lmp is the input script itself to prevent any issues related to stdin and SELF.
	dump	 D_bug bug atom  1000 bug.i1.j7.lmptrj
	dump_modify D_bug scale no pbc yes
	dump	 D_crowd crowd atom 1000 crowd.i1.j7.lmptrj
	dump_modify D_crowd scale no pbc yes
	restart 10000  ./restarts/restart_during.1
	run	50000
Step Temp E_pair E_mol TotEng Press
310000   0.96135122 -0.019108611    1.5108291    2.9324121   0.25938002
Loop time of 6.74482 on 1 procs for 50000 steps with 1080 atoms

	undump D_bug
	undump D_crowd
	next j
	jump input_loop.lmp dump_loop # input.lmp is the input script itself to prevent any issues related to stdin and SELF.
	dump	 D_bug bug atom  1000 bug.i1.j8.lmptrj
	dump_modify D_bug scale no pbc yes
	dump	 D_crowd crowd atom 1000 crowd.i1.j8.lmptrj
	dump_modify D_crowd scale no pbc yes
	restart 10000  ./restarts/restart_during.1
	run	50000
Step Temp E_pair E_mol TotEng Press
360000     1.004582 -0.024267356    1.5132444    2.9944548   0.24113242
Loop time of 8.36364 on 1 procs for 50000 steps with 1080 atoms

	undump D_bug
	undump D_crowd
	next j
	jump input_loop.lmp dump_loop # input.lmp is the input script itself to prevent any issues related to stdin and SELF.
	dump	 D_bug bug atom  1000 bug.i1.j9.lmptrj
	dump_modify D_bug scale no pbc yes
	dump	 D_crowd crowd atom 1000 crowd.i1.j9.lmptrj
	dump_modify D_crowd scale no pbc yes
	restart 10000  ./restarts/restart_during.1
	run	50000
Step Temp E_pair E_mol TotEng Press
410000    1.0512138 -0.016107647    1.5092269    3.0684799   0.31273763
Loop time of 7.48636 on 1 procs for 50000 steps with 1080 atoms

	undump D_bug
	undump D_crowd
	next j
	jump input_loop.lmp dump_loop # input.lmp is the input script itself to prevent any issues related to stdin and SELF.
	dump	 D_bug bug atom  1000 bug.i1.j10.lmptrj
	dump_modify D_bug scale no pbc yes
	dump	 D_crowd crowd atom 1000 crowd.i1.j10.lmptrj
	dump_modify D_crowd scale no pbc yes
	restart 10000  ./restarts/restart_during.1
	run	50000
Step Temp E_pair E_mol TotEng Press
460000    1.0145695 -0.017973035    1.5271045    3.0295766   0.29956996
Loop time of 7.81029 on 1 procs for 50000 steps with 1080 atoms

	undump D_bug
	undump D_crowd
	next j
	jump input_loop.lmp dump_loop # input.lmp is the input script itself to prevent any issues related to stdin and SELF.
#After this loop, the systems evolves 5.1*10E7 timesteps

write_restart    ./restart_after.1
